powerflow/Codes/PF_Formulation/resultados_csv/15/500bus/barras.csv
caso,script,bus_id,vm_pu,va_rad,pd_pu,qd_pu,pg_pu,qg_pu,bus_type
500bus.pwf,15,1,1.011459763879262,-0.14984793100431723,0.0,0.0,0.0,0.0,1
500bus.pwf,15,2,1.0108797611816802,-0.15110294302214458,0.428,0.11410000000000001,0.0,0.0,1
500bus.pwf,15,3,1.0037442377145456,-0.17274934246073725,0.0,0.0,0.0,0.0,1
500bus.pwf,15,4,1.0015746931489653,-0.17714997595710974,1.327,0.3538,0.0,0.0,1
500bus.pwf,15,5,1.0146960622621282,0.01605079844080618,0.0,0.0,0.0,0.0,1
500bus.pwf,15,6,1.0146483592113096,0.01594423330178611,0.03213,0.00857,0.0,0.0,1
500bus.pwf,15,7,1.0327201586732784,-0.08262253178534394,0.0,0.0,0.0,0.0,1
500bus.pwf,15,8,1.0244477156326872,-0.11375894774383412,0.0,0.0,0.0,0.0,1
500bus.pwf,15,9,1.04,-0.033735058344101045,0.0,0.0,7.718,1.2321814675425853,2
500bus.pwf,15,10,1.0170044090585917,-0.2066195686089423,0.0,0.0,0.0,0.0,1
500bus.pwf,15,11,1.0169677436110989,-0.2066918978857884,0.02472,0.00659,0.0,0.0,1
500bus.pwf,15,12,0.9949937716950557,-0.22144060863432832,0.0,0.0,0.0,0.0,1
500bus.pwf,15,13,0.9944479936264587,-0.22255522857492469,0.3716,0.09910000000000001,0.0,0.0,1
500bus.pwf,15,14,1.0310503531480377,-0.04324707048819904,0.0,0.0,0.0,0.0,1
500bus.pwf,15,15,1.0237375955835757,-0.08503413232352883,0.0,0.0,0.0,0.0,1
500bus.pwf,15,16,1.04,0.006356787684560271,0.0,0.0,4.444,0.7635834577477911,2
500bus.pwf,15,17,1.04,0.0,0.0,0.0,6.476075760444866,1.2915140878946774,3
500bus.pwf,15,18,1.04,0.03174016886786869,0.0,0.0,1.5759999999999998,0.19721425292127442,2
500bus.pwf,15,19,1.0178374894672395,-0.21212859071909768,0.0,0.0,0.0,0.0,1
500bus.pwf,15,20,1.0177670880146492,-0.21229263706103513,0.045419999999999995,0.012110000000000001,0.0,0.0,1
500bus.pwf,15,21,1.0086268999230117,-0.17753464513656164,0.0,0.0,0.0,0.0,1
500bus.pwf,15,22,1.0064991553877165,-0.1819544708337657,1.4869999999999999,0.39649999999999996,0.0,0.0,1
500bus.pwf,15,23,1.0267929821676696,-0.10222160281058199,0.0,0.0,0.0,0.0,1
500bus.pwf,15,24,1.0118363794399166,-0.1489235376650729,0.0,0.0,0.0,0.0,1
500bus.pwf,15,25,1.0118007003473353,-0.14900081428834794,0.02283,0.00609,0.0,0.0,1
500bus.pwf,15,26,1.0115025326613212,-0.14968101936670047,0.21660000000000001,0.05777,0.0,0.0,1
500bus.pwf,15,27,1.0375363963267183,-0.24655901422284676,0.0,0.0,0.0,0.0,1
500bus.pwf,15,28,1.0364753362912347,-0.24877096811203403,0.6293,0.1678,0.0,0.0,1
500bus.pwf,15,29,1.005204191559404,-0.216958178536992,0.0,0.0,0.0,0.0,1
500bus.pwf,15,30,1.0037092765041546,-0.22006362168126353,0.9997,0.2666,0.0,0.0,1
500bus.pwf,15,31,1.0330727485426554,-0.2600537470072466,0.0,0.0,0.0,0.0,1
500bus.pwf,15,32,1.0329271480420101,-0.26035229882618505,0.09765,0.02604,0.0,0.0,1
500bus.pwf,15,33,1.0057066464344437,-0.22931969670949637,0.0,0.0,0.0,0.0,1
500bus.pwf,15,34,1.0053333522578203,-0.23009044181471322,0.25,0.06666,0.0,0.0,1
500bus.pwf,15,35,1.0185660282561415,-0.23956138460408788,0.0,0.0,0.0,0.0,1
500bus.pwf,15,36,1.0179729290846393,-0.24076322368951697,0.4335,0.11560000000000001,0.0,0.0,1
500bus.pwf,15,37,1.019536806189432,0.022674537616817415,0.0,0.0,0.0,0.0,1
500bus.pwf,15,38,1.0195348407059865,0.022669971783681655,0.0012900000000000001,0.00034,0.0,0.0,1
500bus.pwf,15,39,1.0294011616599936,-0.09877345669213364,0.0,0.0,0.0,0.0,1
500bus.pwf,15,40,1.0229837874450998,-0.11957895030870676,0.0,0.0,0.0,0.0,1
500bus.pwf,15,41,1.022030064412898,-0.12166129541409132,0.5799,0.15460000000000002,0.0,0.0,1
500bus.pwf,15,42,1.0259012198381783,-0.19960733995073596,0.0,0.0,0.0,0.0,1
500bus.pwf,15,43,1.0258414795634256,-0.1997334209153855,0.044610000000000004,0.011899999999999999,0.0,0.0,1
500bus.pwf,15,44,1.0175572893577294,-0.13252789833197334,0.0,0.0,0.0,0.0,1
500bus.pwf,15,45,1.0175239337396,-0.13260060517481095,0.02031,0.00542,0.0,0.0,1
500bus.pwf,15,46,0.9980012707446574,-0.19286698024964435,0.0,0.0,0.0,0.0,1
500bus.pwf,15,47,0.9973370754599347,-0.1943033590197549,0.4341,0.1158,0.0,0.0,1
500bus.pwf,15,48,1.011497647283899,-0.2769878587367729,0.0,0.0,0.0,0.0,1
500bus.pwf,15,49,1.003,-0.27300959188739304,0.0,0.0,0.013000000000000001,-0.03119284111425364,2
500bus.pwf,15,50,1.003,-0.27242138924403003,0.0,0.0,0.026000000000000002,-0.05318208908694899,2
500bus.pwf,15,51,1.0114919324040326,-0.2769999601880389,0.0035399999999999997,0.00094,0.0,0.0,1
500bus.pwf,15,52,1.011147800115019,-0.2777144073190676,0.2339,0.06237,0.0,0.0,1
500bus.pwf,15,53,1.0110617974550469,-0.19337308162924138,0.0,0.0,0.0,0.0,1
500bus.pwf,15,54,1.0105457161937539,-0.1943542415397199,0.3481,0.09282,0.0,0.0,1
500bus.pwf,15,55,1.0245413302346629,-0.18895539776322123,0.0,0.0,0.0,0.0,1
500bus.pwf,15,56,1.0245078144209838,-0.18902277438057355,0.02253,0.00601,0.0,0.0,1
500bus.pwf,15,57,1.0129703492817808,-0.13772431670098115,0.0,0.0,0.0,0.0,1
500bus.pwf,15,58,1.005609564374637,-0.18353855173690337,0.0,0.0,0.0,0.0,1
500bus.pwf,15,59,1.0032834844396787,-0.18868198851456733,1.409,0.37579999999999997,0.0,0.0,1
500bus.pwf,15,60,1.0194792814715232,-0.12891067256159663,0.0,0.0,0.0,0.0,1
500bus.pwf,15,61,1.0194763599316359,-0.12891730272799753,0.0020399999999999997,0.00054,0.0,0.0,1
500bus.pwf,15,62,1.0065927072364091,-0.1698802960744001,0.0,0.0,0.0,0.0,1
500bus.pwf,15,63,1.01,-0.16994653399111248,0.0,0.0,0.0,0.021044260482958998,2
500bus.pwf,15,64,1.0060617657764988,-0.1709441342100141,0.3478,0.09273999999999999,0.0,0.0,1
500bus.pwf,15,65,1.02742826222796,-0.1517393596881741,0.0,0.0,0.0,0.0,1
500bus.pwf,15,66,1.0253178850058622,-0.1778585756982877,0.0,0.0,0.0,0.0,1
500bus.pwf,15,67,1.0252484997099942,-0.17799689175221223,0.04569,0.01218,0.0,0.0,1
500bus.pwf,15,68,1.0254263351779824,-0.19134158638700446,0.0,0.0,0.0,0.0,1
500bus.pwf,15,69,1.025139089567408,-0.19195787494489538,0.1696,0.04523,0.0,0.0,1
500bus.pwf,15,70,0.9963750084793165,-0.22656601238878996,0.0,0.0,0.0,0.0,1
500bus.pwf,15,71,0.996,-0.2247539061884557,0.0,0.0,0.04,-0.009237009795167707,2
500bus.pwf,15,72,0.996,-0.2236389080477587,0.0,0.0,0.02,-0.0029532289380726066,2
500bus.pwf,15,73,0.997,-0.22273932098011132,0.0,0.0,0.013999999999999999,0.0016578613653797597,2
500bus.pwf,15,74,1.0253450123941454,-0.2573436499438385,0.0,0.0,0.0,0.0,1
500bus.pwf,15,75,1.0252687324296839,-0.2575041651971615,0.05301,0.01414,0.0,0.0,1
500bus.pwf,15,76,1.018001801891514,0.03807242514003763,0.0,0.0,0.0,0.0,1
500bus.pwf,15,77,1.0178939815174415,0.03786264248300631,0.06951,0.01854,0.0,0.0,1
500bus.pwf,15,78,1.0160365151698796,-0.12483669264039284,0.0,0.0,0.0,0.0,1
500bus.pwf,15,79,1.016030890241377,-0.12484817773146291,0.00381,0.0010199999999999999,0.0,0.0,1
500bus.pwf,15,80,1.032962500083314,-0.14206507460917375,0.0,0.0,0.0,0.0,1
500bus.pwf,15,81,1.0282361196187761,-0.18486050975841642,0.0,0.0,0.0,0.0,1
500bus.pwf,15,82,1.04,-0.03715312235686702,0.0,0.0,3.6189999999999998,0.374862014958663,2
500bus.pwf,15,83,1.004139806093545,-0.2370096796218819,0.0,0.0,0.0,0.0,1
500bus.pwf,15,84,1.0031503775846573,-0.23913438348736002,0.6141,0.1638,0.0,0.0,1
500bus.pwf,15,85,1.0263591677890125,-0.2395593178106332,0.0,0.0,0.0,0.0,1
500bus.pwf,15,86,1.0260687932567472,-0.240181855972481,0.1759,0.04691,0.0,0.0,1
500bus.pwf,15,87,1.00158721516815,0.052363562373804934,0.0,0.0,0.0,0.0,1
500bus.pwf,15,88,1.0015046275033657,0.05218537639260624,0.05253,0.01401,0.0,0.0,1
500bus.pwf,15,89,1.0148294164571439,-0.15617923146507312,0.0,0.0,0.0,0.0,1
500bus.pwf,15,90,1.0147372348091883,-0.1563921818287928,0.05901,0.01574,0.0,0.0,1
500bus.pwf,15,91,1.014097951401261,-0.11161927622937827,0.0,0.0,0.0,0.0,1
500bus.pwf,15,92,1.0131094406052943,-0.1138123377359503,0.6503,0.1734,0.0,0.0,1
500bus.pwf,15,93,1.0153921410447235,-0.07346585163708635,0.0,0.0,0.0,0.0,1
500bus.pwf,15,94,1.0153196782727874,-0.0736245862061435,0.052140000000000006,0.0139,0.0,0.0,1
500bus.pwf,15,95,1.0144008181551833,-0.11025774482118982,0.0,0.0,0.0,0.0,1
500bus.pwf,15,96,1.0139206894085553,-0.11128362650664633,0.34,0.09066,0.0,0.0,1
500bus.pwf,15,97,1.0272583994911086,-0.28802861399819196,0.0,0.0,0.0,0.0,1
500bus.pwf,15,98,1.026667963177633,-0.2893770656580811,0.3709,0.09891,0.0,0.0,1
500bus.pwf,15,99,1.0234109086473204,-0.12042352732504567,0.0,0.0,0.0,0.0,1
500bus.pwf,15,100,1.0231980713727804,-0.12086876116342885,0.1352,0.03606,0.0,0.0,1
500bus.pwf,15,101,1.0233971579809131,-0.1204499594505766,0.00891,0.0023799999999999997,0.0,0.0,1
500bus.pwf,15,102,1.0109498042098266,-0.2528169843911601,0.0,0.0,0.0,0.0,1
500bus.pwf,15,103,1.0103161357436692,-0.2542264159555036,0.38799999999999996,0.1035,0.0,0.0,1
500bus.pwf,15,104,1.0192823621428355,-0.26680875744182,0.0,0.0,0.0,0.0,1
500bus.pwf,15,105,1.017958486636316,-0.26957395476156815,0.8033,0.21420000000000003,0.0,0.0,1
500bus.pwf,15,106,1.0207155233828884,-0.22035459321470197,0.0,0.0,0.0,0.0,1
500bus.pwf,15,107,1.020491224123318,-0.22082355398178152,0.16,0.042679999999999996,0.0,0.0,1
500bus.pwf,15,108,1.0155180016916043,-0.13750590565310059,0.0,0.0,0.0,0.0,1
500bus.pwf,15,109,1.014832295444294,-0.13881436040421993,0.4758,0.12689999999999999,0.0,0.0,1
500bus.pwf,15,110,1.027165393346926,-0.04771723499886262,0.0,0.0,0.0,0.0,1
500bus.pwf,15,111,1.0262431605549274,-0.04982553184049399,0.6229,0.1661,0.0,0.0,1
500bus.pwf,15,112,1.0131543687063143,-0.20282580743869297,0.0,0.0,0.0,0.0,1
500bus.pwf,15,113,1.0124830550266055,-0.20414731943611164,0.45990000000000003,0.1226,0.0,0.0,1
500bus.pwf,15,114,1.0200973079006166,-0.2465367300771147,0.0,0.0,0.0,0.0,1
500bus.pwf,15,115,1.0200277049020505,-0.24669360837194862,0.05061,0.013500000000000002,0.0,0.0,1
500bus.pwf,15,116,1.020054343882985,-0.2466342935397648,0.030990000000000004,0.00826,0.0,0.0,1
500bus.pwf,15,117,1.005971920371844,-0.2104560868012011,0.0,0.0,0.0,0.0,1
500bus.pwf,15,118,1.0058260496987652,-0.21077747819325637,0.08832000000000001,0.02355,0.0,0.0,1
500bus.pwf,15,119,0.9895224141538198,-0.2274508009008635,0.0,0.0,0.0,0.0,1
500bus.pwf,15,120,0.989082998241932,-0.22839207001198988,0.3165,0.08439999999999999,0.0,0.0,1
500bus.pwf,15,121,1.0064346972139386,-0.20599014343788236,0.0,0.0,0.0,0.0,1
500bus.pwf,15,122,1.0055940384504012,-0.20794009592066498,0.5336,0.1423,0.0,0.0,1
500bus.pwf,15,123,1.031149478798872,-0.0380777173284746,0.0,0.0,0.0,0.0,1
500bus.pwf,15,124,1.0291555611723067,-0.0501106549673455,0.0,0.0,0.0,0.0,1
500bus.pwf,15,125,1.03,-0.03807003691665411,0.0,0.0,0.0,-0.02913295107263874,2
500bus.pwf,15,126,1.03,-0.03807007851909147,0.0,0.0,0.0,-0.054086940700307104,2
500bus.pwf,15,127,1.04,0.03429088109751406,0.0,0.0,1.62,0.23781090830920582,2
500bus.pwf,15,128,1.04,-0.014218937924617717,0.0,0.0,1.62,0.5836311332420946,2
500bus.pwf,15,129,0.9876038775006633,-0.24007696334545017,0.0,0.0,0.0,0.0,1
500bus.pwf,15,130,0.9859688218276303,-0.2432933210745547,1.032,0.2753,0.0,0.0,1
500bus.pwf,15,131,1.0202183525713393,-0.12682704723395086,0.0,0.0,0.0,0.0,1
500bus.pwf,15,132,1.019813367279869,-0.1276591802017051,0.252,0.06721,0.0,0.0,1
500bus.pwf,15,133,1.015192420212659,-0.10996713640001196,0.0,0.0,0.0,0.0,1
500bus.pwf,15,134,1.0146297468873515,-0.1111866699938497,0.4265,0.1137,0.0,0.0,1
500bus.pwf,15,135,1.0109465947516247,-0.15953216691229014,0.0,0.0,0.0,0.0,1
500bus.pwf,15,136,1.0105423947743277,-0.16045264687030478,0.2676,0.07135,0.0,0.0,1
500bus.pwf,15,137,1.0083025415989917,-0.2122994082449619,0.0,0.0,0.0,0.0,1
500bus.pwf,15,138,1.007074828642236,-0.21512040250790115,0.787,0.20989999999999998,0.0,0.0,1
500bus.pwf,15,139,1.0159540372438025,-0.1371295311529374,0.0,0.0,0.0,0.0,1
500bus.pwf,15,140,1.0159504008785125,-0.13713699726996587,0.00255,0.00068,0.0,0.0,1
500bus.pwf,15,141,1.001420621436456,-0.004118594362972763,0.0,0.0,0.0,0.0,1
500bus.pwf,15,142,0.9988264673222056,-0.009333056594871858,1.6130000000000002,0.4302,0.0,0.0,1
500bus.pwf,15,143,1.0189325999103684,0.15187135556276815,0.0,0.0,0.0,0.0,1
500bus.pwf,15,144,1.04,0.370572895243847,0.0,0.0,6.025,1.111564260488747,2
500bus.pwf,15,145,1.04,0.19859526788492307,0.0,0.0,2.9819999999999998,1.263638667330335,2
500bus.pwf,15,146,1.0279527428725206,-0.09928099805849183,0.0,0.0,0.0,0.0,1
500bus.pwf,15,147,1.0165592644917953,-0.11089474112010154,0.0,0.0,0.0,0.0,1
500bus.pwf,15,148,1.0156287373849233,-0.11299537603425112,0.5742,0.1531,0.0,0.0,1
500bus.pwf,15,149,1.0251942624518589,-0.19935143617010576,0.0,0.0,0.0,0.0,1
500bus.pwf,15,150,1.0251698459546117,-0.199401655574991,0.015029999999999998,0.0040100000000000005,0.0,0.0,1
500bus.pwf,15,151,1.0270853802059074,-0.1035970896119506,0.0,0.0,0.0,0.0,1
500bus.pwf,15,152,1.0187712741086594,-0.14526175557562981,0.0,0.0,0.0,0.0,1
500bus.pwf,15,153,1.0175231018457762,-0.1479316513852264,0.9315000000000001,0.2484,0.0,0.0,1
500bus.pwf,15,154,1.0096544239175038,-0.15308958606098974,0.0,0.0,0.0,0.0,1
500bus.pwf,15,155,1.0087688925378269,-0.1549685116361796,0.6684,0.1782,0.0,0.0,1
500bus.pwf,15,156,0.9863872751610528,-0.21699103357053579,0.0,0.0,0.0,0.0,1
500bus.pwf,15,157,0.9847184287659362,-0.22070534181619855,1.055,0.2812,0.0,0.0,1
500bus.pwf,15,158,1.0067705609523994,-0.1984063837454529,0.0,0.0,0.0,0.0,1
500bus.pwf,15,159,1.0063992661529286,-0.1992437333127791,0.2285,0.06094,0.0,0.0,1
500bus.pwf,15,160,1.0204336485820575,-0.22532551339256543,0.0,0.0,0.0,0.0,1
500bus.pwf,15,161,1.0200498850376922,-0.22617804865146743,0.2595,0.06921000000000001,0.0,0.0,1
500bus.pwf,15,162,1.0282116011006388,-0.09860845509136366,0.0,0.0,0.0,0.0,1
500bus.pwf,15,163,1.0243438000566125,-0.11225221351782867,0.0,0.0,0.0,0.0,1
500bus.pwf,15,164,1.0226930934015865,-0.1158256905012015,0.9815,0.26170000000000004,0.0,0.0,1
500bus.pwf,15,165,1.0315380661089344,-0.03231644855109649,0.0,0.0,0.0,0.0,1
500bus.pwf,15,166,1.0270243475204972,-0.055288569377459566,0.0,0.0,0.0,0.0,1
500bus.pwf,15,167,1.04,0.006424581465782466,0.0,0.0,1.935,0.4037680547086635,2
500bus.pwf,15,168,1.04,0.03166074088187876,0.0,0.0,1.935,0.29399943551489505,2
500bus.pwf,15,169,1.04,0.05993808931761691,0.0,0.0,3.87,0.4694260677537171,2
500bus.pwf,15,170,1.0139305720088383,-0.11272667092709132,0.0,0.0,0.0,0.0,1
500bus.pwf,15,171,1.0137450186192296,-0.113164779932098,0.12380000000000001,0.033,0.0,0.0,1
500bus.pwf,15,172,1.0066720515886312,-0.1881524133417644,0.0,0.0,0.0,0.0,1
500bus.pwf,15,173,1.0066249859728857,-0.18824379561280888,0.031349999999999996,0.00836,0.0,0.0,1
500bus.pwf,15,174,1.0065706979057802,-0.188360230481365,0.07305,0.01948,0.0,0.0,1
500bus.pwf,15,175,1.0340796914174677,-0.02342866458530682,0.0,0.0,0.0,0.0,1
500bus.pwf,15,176,1.023264011600302,-0.008852070176373732,0.0,0.0,0.0,0.0,1
500bus.pwf,15,177,1.0231326163386598,-0.0091456681215947,0.08781,0.02342,0.0,0.0,1
500bus.pwf,15,178,1.023162378819964,-0.009045545871347396,0.06813,0.01817,0.0,0.0,1
500bus.pwf,15,179,0.9998028063131487,-0.21993922802098428,0.0,0.0,0.0,0.0,1
500bus.pwf,15,180,0.9995799909954582,-0.22038026747858935,0.1414,0.0377,0.0,0.0,1
500bus.pwf,15,181,1.041359091933609,-0.2861135780066783,0.0,0.0,0.0,0.0,1
500bus.pwf,15,182,1.040067063644932,-0.2888189897022607,0.8261,0.22030000000000002,0.0,0.0,1
500bus.pwf,15,183,1.0247833691462866,-0.07857125246125597,0.0,0.0,0.0,0.0,1
500bus.pwf,15,184,1.0243870923134173,-0.07939454924186169,0.3018,0.08047,0.0,0.0,1
500bus.pwf,15,185,1.0115972556415287,-0.13933647114586775,0.0,0.0,0.0,0.0,1
500bus.pwf,15,186,1.0109777817343464,-0.1406294903513532,0.4535,0.1209,0.0,0.0,1
500bus.pwf,15,187,1.0140401140744997,-0.16295679020534992,0.0,0.0,0.0,0.0,1
500bus.pwf,15,188,1.0138756846892139,-0.16327559649812512,0.1105,0.02946,0.0,0.0,1
500bus.pwf,15,189,1.0282851838186888,-0.2622632300714007,0.0,0.0,0.0,0.0,1
500bus.pwf,15,190,1.0280808904066048,-0.262639393691287,0.1407,0.03752,0.0,0.0,1
500bus.pwf,15,191,1.020729905326871,-0.23717423964326115,0.0,0.0,0.0,0.0,1
500bus.pwf,15,192,1.0204578865224474,-0.23773949304192432,0.16440000000000002,0.043840000000000004,0.0,0.0,1
500bus.pwf,15,193,1.014609458806592,-0.21134151334754017,0.0,0.0,0.0,0.0,1
500bus.pwf,15,194,1.014125242306346,-0.21234991690874103,0.2869,0.07652,0.0,0.0,1
500bus.pwf,15,195,1.0282540155555642,-0.09912148181445404,0.0,0.0,0.0,0.0,1
500bus.pwf,15,196,1.01883899147769,-0.13861605878347744,0.0,0.0,0.0,0.0,1
500bus.pwf,15,197,1.04,-0.014112489815036948,0.0,0.0,2.9360000000000004,0.46150433415645514,2
500bus.pwf,15,198,1.04,-0.056957121913751636,0.0,0.0,2.073,0.5659446613989453,2
500bus.pwf,15,199,1.0174969430881406,-0.14122228604357598,0.8639,0.2304,0.0,0.0,1
500bus.pwf,15,200,1.0198861767161924,-0.12553520566289755,0.0,0.0,0.0,0.0,1
500bus.pwf,15,201,1.0197525746310598,-0.1257908675759046,0.08889,0.023700000000000002,0.0,0.0,1
500bus.pwf,15,202,1.0040347037958106,-0.1779011294741744,0.0,0.0,0.0,0.0,1
500bus.pwf,15,203,1.003959594532555,-0.17806143093181756,0.04689,0.0125,0.0,0.0,1
500bus.pwf,15,204,1.0033093373119872,-0.17959752498697182,0.4567,0.12179999999999999,0.0,0.0,1
500bus.pwf,15,205,1.0225759563681815,-0.25346894704828354,0.0,0.0,0.0,0.0,1
500bus.pwf,15,206,1.0225358884830074,-0.253551834918054,0.03009,0.008020000000000001,0.0,0.0,1
500bus.pwf,15,207,1.0222135494142366,-0.25423032782248284,0.2257,0.06019,0.0,0.0,1
500bus.pwf,15,208,1.0175512896792316,-0.2496463381885877,0.0,0.0,0.0,0.0,1
500bus.pwf,15,209,1.0163603767246683,-0.2523881538765412,0.8186,0.2183,0.0,0.0,1
500bus.pwf,15,210,1.0019455356710285,-0.17351086231722332,0.0,0.0,0.0,0.0,1
500bus.pwf,15,211,1.0013670791816704,-0.17474151170035984,0.3428,0.09141,0.0,0.0,1
500bus.pwf,15,212,1.0205865221340311,-0.2221839468122596,0.0,0.0,0.0,0.0,1
500bus.pwf,15,213,1.0190401542888903,-0.225481204128963,0.9748,0.26,0.0,0.0,1
500bus.pwf,15,214,1.0050244244484057,-0.22650811106430754,0.0,0.0,0.0,0.0,1
500bus.pwf,15,215,1.0036768968005072,-0.22957247314924534,0.8448,0.2253,0.0,0.0,1
500bus.pwf,15,216,0.9929120296740361,-0.23253835238528217,0.0,0.0,0.0,0.0,1
500bus.pwf,15,217,0.9921140842946801,-0.234199234389891,0.551,0.1469,0.0,0.0,1
500bus.pwf,15,218,1.0271479316319112,-0.23512793952456063,0.0,0.0,0.0,0.0,1
500bus.pwf,15,219,1.027142880107274,-0.23513899396833038,0.00333,0.00089,0.0,0.0,1
500bus.pwf,15,220,1.0359609975686632,-0.02949295617049018,0.0,0.0,0.0,0.0,1
500bus.pwf,15,221,1.023212710394222,-0.08403588436881529,0.0,0.0,0.0,0.0,1
500bus.pwf,15,222,1.036,-0.028415248776312445,0.0,0.0,0.052000000000000005,0.0007114870094017556,2
500bus.pwf,15,223,1.038,-0.024402798814966473,0.0,0.0,0.18,0.06619814496483004,2
500bus.pwf,15,224,1.04,0.027481770027646357,0.0,0.0,5.112,0.3914100335181503,2
500bus.pwf,15,225,1.04,0.00012719517089956656,0.0,0.0,5.148,0.6779127134352966,2
500bus.pwf,15,226,1.014411158127412,-0.11288467249828626,0.0,0.0,0.0,0.0,1
500bus.pwf,15,227,1.0143277693506179,-0.11305175194974292,0.054240000000000003,0.014459999999999999,0.0,0.0,1
500bus.pwf,15,228,1.009213163758309,-0.12438384295139687,0.0,0.0,0.0,0.0,1
500bus.pwf,15,229,1.0083819604457025,-0.12620798516534423,0.5409,0.1442,0.0,0.0,1
500bus.pwf,15,230,1.0251846395860227,-0.1999956869812597,0.0,0.0,0.0,0.0,1
500bus.pwf,15,231,1.013,-0.19449092855424074,0.0,0.0,0.028999999999999998,-0.0658686513945328,2
500bus.pwf,15,232,1.027762448385044,-0.11446554275890237,0.0,0.0,0.0,0.0,1
500bus.pwf,15,233,1.0150794162613352,-0.17280251975495833,0.0,0.0,0.0,0.0,1
500bus.pwf,15,234,1.014213394694346,-0.17470575534091162,0.5996,0.15990000000000001,0.0,0.0,1
500bus.pwf,15,235,1.0298694786868494,-0.18298100728090158,0.0,0.0,0.0,0.0,1
500bus.pwf,15,236,1.0223232421564088,-0.20414895395111973,0.0,0.0,0.0,0.0,1
500bus.pwf,15,237,1.0222810834021094,-0.2042310234162132,0.027120000000000002,0.0072299999999999994,0.0,0.0,1
500bus.pwf,15,238,1.008352494259018,-0.16901031744590944,0.0,0.0,0.0,0.0,1
500bus.pwf,15,239,1.0077776609411364,-0.17035099856979705,0.39130000000000004,0.10439999999999999,0.0,0.0,1
500bus.pwf,15,240,1.023303770436408,-0.2515481608073944,0.0,0.0,0.0,0.0,1
500bus.pwf,15,241,1.022994286880605,-0.25227207968563437,0.1974,0.05264,0.0,0.0,1
500bus.pwf,15,242,1.000109528613883,-0.24008490654142828,0.0,0.0,0.0,0.0,1
500bus.pwf,15,243,0.9989182497540847,-0.24272432146902745,0.7447,0.1986,0.0,0.0,1
500bus.pwf,15,244,1.0097110165346068,-0.19319492649681275,0.0,0.0,0.0,0.0,1
500bus.pwf,15,245,1.009542289393994,-0.1935426016786536,0.1184,0.031560000000000005,0.0,0.0,1
500bus.pwf,15,246,1.0316635891354784,-0.09469639622843172,0.0,0.0,0.0,0.0,1
500bus.pwf,15,247,1.026064523450373,-0.08220761884790118,0.0,0.0,0.0,0.0,1
500bus.pwf,15,248,1.032,-0.09470427237498011,0.0,0.0,0.0,0.006380739661058727,2
500bus.pwf,15,249,1.032,-0.09470472110426532,0.0,0.0,0.0,0.006397200088426999,2
500bus.pwf,15,250,1.032,-0.09470288881446473,0.0,0.0,0.0,0.034442060350346776,2
500bus.pwf,15,251,0.9911488515524755,-0.2075342807565129,0.0,0.0,0.0,0.0,1
500bus.pwf,15,252,0.9891097173424455,-0.21199831600732685,1.187,0.3165,0.0,0.0,1
500bus.pwf,15,253,0.9925134479953616,-0.21457848742708915,0.0,0.0,0.0,0.0,1
500bus.pwf,15,254,0.991,-0.21453065445404407,0.0,0.0,0.0,-0.011148634856649249,2
500bus.pwf,15,255,0.991,-0.21453920729828213,0.0,0.0,0.0,-0.014151974058547014,2
500bus.pwf,15,256,0.991,-0.21452523682909444,0.0,0.0,0.0,-0.007947780086468821,2
500bus.pwf,15,257,0.991,-0.21453046433663572,0.0,0.0,0.0,-0.018523228830123875,2
500bus.pwf,15,258,0.992,-0.21165933590394495,0.0,0.0,0.011000000000000001,-0.002344847201042144,2
500bus.pwf,15,259,0.992381324313494,-0.21486057488283783,0.0816,0.02176,0.0,0.0,1
500bus.pwf,15,260,1.0275020376648645,-0.054321910003337165,0.0,0.0,0.0,0.0,1
500bus.pwf,15,261,1.0272366651480656,-0.05488164159329989,0.1868,0.04982,0.0,0.0,1
500bus.pwf,15,262,1.0267764569798967,-0.11926635756502778,0.0,0.0,0.0,0.0,1
500bus.pwf,15,263,1.0164518538154426,-0.19346398313225235,0.0,0.0,0.0,0.0,1
500bus.pwf,15,264,1.029,-0.11928885677316595,0.0,0.0,0.0,0.045714805880786365,2
500bus.pwf,15,265,1.029,-0.11928109790794067,0.0,0.0,0.0,0.06771310689958282,2
500bus.pwf,15,266,1.0155501425744138,-0.1954111790477339,0.6178,0.1648,0.0,0.0,1
500bus.pwf,15,267,1.0165919595409785,-0.2807872179372276,0.0,0.0,0.0,0.0,1
500bus.pwf,15,268,1.014904347479243,-0.28469220864055994,1.171,0.3124,0.0,0.0,1
500bus.pwf,15,269,1.0154110310811342,-0.08841562044275413,0.0,0.0,0.0,0.0,1
500bus.pwf,15,270,1.0153015277923156,-0.08866785760157161,0.06801,0.01814,0.0,0.0,1
500bus.pwf,15,271,1.029207002513242,-0.18626113112550063,0.0,0.0,0.0,0.0,1
500bus.pwf,15,272,1.0235200087716054,-0.21644000783497028,0.0,0.0,0.0,0.0,1
500bus.pwf,15,273,1.0233684549259794,-0.21678854624044375,0.09492,0.025310000000000003,0.0,0.0,1
500bus.pwf,15,274,1.026088835151048,-0.061900434608014955,0.0,0.0,0.0,0.0,1
500bus.pwf,15,275,1.026,-0.06189788851017571,0.0,0.0,0.0,-0.0022333954611931015,2
500bus.pwf,15,276,1.010396237953656,-0.20234623408892777,0.0,0.0,0.0,0.0,1
500bus.pwf,15,277,1.0103901629296947,-0.20236019352921283,0.004050000000000001,0.00108,0.0,0.0,1
500bus.pwf,15,278,1.010307387260912,-0.20255584511897043,0.05769,0.01538,0.0,0.0,1
500bus.pwf,15,279,1.0050748519595984,-0.15259561433817959,0.0,0.0,0.0,0.0,1
500bus.pwf,15,280,1.0048196939738092,-0.15308154723750553,0.16940000000000002,0.04518,0.0,0.0,1
500bus.pwf,15,281,1.0031705872146361,-0.2553046299380148,0.0,0.0,0.0,0.0,1
500bus.pwf,15,282,1.0014012776435337,-0.25936025448369837,1.173,0.3128,0.0,0.0,1
500bus.pwf,15,283,1.0164799102791928,-0.21221314613040085,0.0,0.0,0.0,0.0,1
500bus.pwf,15,284,1.0159300302314327,-0.21341976486829956,0.3265,0.08706,0.0,0.0,1
500bus.pwf,15,285,1.0287776737930052,-0.22964506643692562,0.0,0.0,0.0,0.0,1
500bus.pwf,15,286,1.0286540114270746,-0.22988631690214695,0.08268,0.02205,0.0,0.0,1
500bus.pwf,15,287,1.008177971099572,-0.18124188838253294,0.0,0.0,0.0,0.0,1
500bus.pwf,15,288,1.0072960335485308,-0.1833492867817789,0.5811,0.155,0.0,0.0,1
500bus.pwf,15,289,1.0210631864888207,-0.07851699005960276,0.0,0.0,0.0,0.0,1
500bus.pwf,15,290,1.0210068816368016,-0.0786466042019415,0.0369,0.00984,0.0,0.0,1
500bus.pwf,15,291,1.0031984393692883,-0.21032590927519693,0.0,0.0,0.0,0.0,1
500bus.pwf,15,292,1.0030890196087914,-0.21055799225343697,0.07617,0.02031,0.0,0.0,1
500bus.pwf,15,293,1.0211688760073563,-0.22214280051235677,0.0,0.0,0.0,0.0,1
500bus.pwf,15,294,1.0207866185343804,-0.22290891262284918,0.2561,0.06828000000000001,0.0,0.0,1
500bus.pwf,15,295,1.0223771536354156,-0.1647380355979733,0.0,0.0,0.0,0.0,1
500bus.pwf,15,296,1.0222669013050636,-0.16498333247269584,0.07788,0.02077,0.0,0.0,1
500bus.pwf,15,297,1.0204556922411216,-0.14971758551804243,0.0,0.0,0.0,0.0,1
500bus.pwf,15,298,1.0173223897572254,-0.1744854566397398,0.0,0.0,0.0,0.0,1
500bus.pwf,15,299,1.0171060875360858,-0.17497689702427552,0.1457,0.038849999999999996,0.0,0.0,1
500bus.pwf,15,300,1.0063790632897778,-0.04237648524564251,0.0,0.0,0.0,0.0,1
500bus.pwf,15,301,1.007,-0.04006772550562878,0.0,0.0,0.028999999999999998,0.0068537311229769195,2
500bus.pwf,15,302,1.007,-0.04015881404712017,0.0,0.0,0.028999999999999998,0.006654904523056048,2
500bus.pwf,15,303,1.0048958124871012,-0.04565760331318328,0.8676,0.2314,0.0,0.0,1
500bus.pwf,15,304,0.988338767448767,-0.23806796016409199,0.0,0.0,0.0,0.0,1
500bus.pwf,15,305,0.988,-0.23255875270403545,0.0,0.0,0.01,-0.0009823737559564636,2
500bus.pwf,15,306,0.988,-0.23191591641680895,0.0,0.0,0.024,-0.0017665796788347197,2
500bus.pwf,15,307,0.9872020840629523,-0.24065589028689263,0.7604000000000001,0.2028,0.0,0.0,1
500bus.pwf,15,308,1.0186823700656245,-0.21492993762029913,0.0,0.0,0.0,0.0,1
500bus.pwf,15,309,1.0185295449613736,-0.21526239831819619,0.09029999999999999,0.02408,0.0,0.0,1
500bus.pwf,15,310,1.014094987349618,-0.2725391113511498,0.0,0.0,0.0,0.0,1
500bus.pwf,15,311,1.0134132333579706,-0.27399858875393523,0.43829999999999997,0.11689999999999999,0.0,0.0,1
500bus.pwf,15,312,1.020080125601343,-0.252714842503848,0.0,0.0,0.0,0.0,1
500bus.pwf,15,313,1.0198723598367487,-0.25316984497241807,0.1244,0.033170000000000005,0.0,0.0,1
500bus.pwf,15,314,1.0243121461699993,-0.18180369632863677,0.0,0.0,0.0,0.0,1
500bus.pwf,15,315,1.02430641933684,-0.1818158752704923,0.00426,0.00114,0.0,0.0,1
500bus.pwf,15,316,1.019312970793892,-0.011129852933622621,0.0,0.0,0.0,0.0,1
500bus.pwf,15,317,1.0192583426812312,-0.01123339583301355,0.03753,0.010009999999999998,0.0,0.0,1
500bus.pwf,15,318,1.021780117315877,-0.02607917538296807,0.0,0.0,0.0,0.0,1
500bus.pwf,15,319,1.034,0.004050676881997661,0.0,0.0,0.423,0.1640167577139575,2
500bus.pwf,15,320,0.9963161913786601,-0.24354758490280193,0.0,0.0,0.0,0.0,1
500bus.pwf,15,321,0.9938951798774163,-0.24879017399885833,1.504,0.4011,0.0,0.0,1
500bus.pwf,15,322,1.0021762865205737,-0.21379859934812862,0.0,0.0,0.0,0.0,1
500bus.pwf,15,323,1.0015031599684465,-0.21512186190926091,0.45270000000000005,0.1207,0.0,0.0,1
500bus.pwf,15,324,0.9923542529658391,-0.2336667993391896,0.0,0.0,0.0,0.0,1
500bus.pwf,15,325,0.9907527958059923,-0.23742416990377072,1.035,0.2759,0.0,0.0,1
500bus.pwf,15,326,1.0082454562921324,-0.2232906797787837,0.0,0.0,0.0,0.0,1
500bus.pwf,15,327,1.0065278616743287,-0.22691956091070264,1.2109999999999999,0.32280000000000003,0.0,0.0,1
500bus.pwf,15,328,1.0052389241500341,-0.19856160547678056,0.0,0.0,0.0,0.0,1
500bus.pwf,15,329,1.0048857727135267,-0.19930508325370372,0.2602,0.06938,0.0,0.0,1
500bus.pwf,15,330,1.0152156188125587,-0.13895645086470873,0.0,0.0,0.0,0.0,1
500bus.pwf,15,331,1.0143083773565655,-0.14102712147131033,0.5717,0.1525,0.0,0.0,1
500bus.pwf,15,332,1.0293122480077632,-0.09750030730653336,0.0,0.0,0.0,0.0,1
500bus.pwf,15,333,1.0206278596246368,-0.125152268048111,0.0,0.0,0.0,0.0,1
500bus.pwf,15,334,1.0206204129405279,-0.12516678709808576,0.00501,0.00134,0.0,0.0,1
500bus.pwf,15,335,1.020615010779161,-0.12517936909351587,0.00834,0.00222,0.0,0.0,1
500bus.pwf,15,336,1.0160173387636788,-0.048682234234132336,0.0,0.0,0.0,0.0,1
500bus.pwf,15,337,1.0159277486008609,-0.04888854961485849,0.05673,0.01513,0.0,0.0,1
500bus.pwf,15,338,1.0113065576543927,0.12922097275632669,0.0,0.0,0.0,0.0,1
500bus.pwf,15,339,1.0101686462462287,0.12666203749152832,0.7511,0.2003,0.0,0.0,1
500bus.pwf,15,340,1.003381641290519,-0.16447824803753727,0.0,0.0,0.0,0.0,1
500bus.pwf,15,341,1.0029843147923072,-0.16536456422242218,0.2422,0.06459,0.0,0.0,1
500bus.pwf,15,342,1.0115394280647412,-0.21966760454921394,0.0,0.0,0.0,0.0,1
500bus.pwf,15,343,1.0115011030388548,-0.21975286564230134,0.02511,0.0067,0.0,0.0,1
500bus.pwf,15,344,1.0115008630169384,-0.21975604111971314,0.024300000000000002,0.0064800000000000005,0.0,0.0,1
500bus.pwf,15,345,0.996903798351555,-0.22363222264450702,0.0,0.0,0.0,0.0,1
500bus.pwf,15,346,0.996231052021818,-0.22508755859465535,0.4758,0.12689999999999999,0.0,0.0,1
500bus.pwf,15,347,0.9891973806020367,-0.2208840189181752,0.0,0.0,0.0,0.0,1
500bus.pwf,15,348,0.9879605181986617,-0.22350503377024608,0.8640000000000001,0.2304,0.0,0.0,1
500bus.pwf,15,349,1.0198138736754432,-0.19987650353416378,0.0,0.0,0.0,0.0,1
500bus.pwf,15,350,1.024,-0.18973392893179986,0.0,0.0,0.15,0.054962386433850416,2
500bus.pwf,15,351,1.022,-0.19525655297481526,0.0,0.0,0.062,0.025289134910120057,2
500bus.pwf,15,352,1.024,-0.19009055417976117,0.0,0.0,0.14400000000000002,0.05405651420984111,2
500bus.pwf,15,353,1.04,-0.1501970233645074,0.0,0.0,0.74,0.2812204628791723,2
500bus.pwf,15,354,1.0216055177614196,-0.12266346356174239,0.0,0.0,0.0,0.0,1
500bus.pwf,15,355,1.0212746992865338,-0.12334767041598711,0.1996,0.053239999999999996,0.0,0.0,1
500bus.pwf,15,356,1.0191186778728392,-0.260237963577168,0.0,0.0,0.0,0.0,1
500bus.pwf,15,357,1.0183151212975834,-0.26199804666400406,0.5573,0.14859999999999998,0.0,0.0,1
500bus.pwf,15,358,1.018338480312663,-0.281168984138664,0.0,0.0,0.0,0.0,1
500bus.pwf,15,359,1.01810839571812,-0.28163728537841376,0.1459,0.038900000000000004,0.0,0.0,1
500bus.pwf,15,360,1.0021704599926764,-0.17638276785702767,0.0,0.0,0.0,0.0,1
500bus.pwf,15,361,1.002,-0.17637576705689112,0.0,0.0,0.0,-0.0005064668989576094,2
500bus.pwf,15,362,1.002,-0.17637766407427286,0.0,0.0,0.0,-0.0014477106656939193,2
500bus.pwf,15,363,1.002,-0.17637948123695651,0.0,0.0,0.0,-0.0014733106979224159,2
500bus.pwf,15,364,1.0017256138231119,-0.17742007481560565,0.3044,0.08117,0.0,0.0,1
500bus.pwf,15,365,1.004132893036654,-0.210170790750122,0.0,0.0,0.0,0.0,1
500bus.pwf,15,366,1.0032382674172848,-0.2122855110047242,0.5649000000000001,0.1506,0.0,0.0,1
500bus.pwf,15,367,1.01671989684365,-0.11059938616249973,0.0,0.0,0.0,0.0,1
500bus.pwf,15,368,1.0165650858493962,-0.11094020794365854,0.11449999999999999,0.030539999999999998,0.0,0.0,1
500bus.pwf,15,369,1.0199907627986213,-0.09289526134292979,0.0,0.0,0.0,0.0,1
500bus.pwf,15,370,1.0195062582691494,-0.09389204303928515,0.35600000000000004,0.09494,0.0,0.0,1
500bus.pwf,15,371,1.0270540632847056,-0.11178216201862512,0.0,0.0,0.0,0.0,1
500bus.pwf,15,372,1.0179279677586606,-0.1744502362812052,0.0,0.0,0.0,0.0,1
500bus.pwf,15,373,1.0175224552869961,-0.1752927452981583,0.2884,0.07690000000000001,0.0,0.0,1
500bus.pwf,15,374,1.00098621253292,-0.2181004496169234,0.0,0.0,0.0,0.0,1
500bus.pwf,15,375,1.0006634425715204,-0.21881111718400867,0.2477,0.06604,0.0,0.0,1
500bus.pwf,15,376,1.0079461080982661,-0.1574323251039663,0.0,0.0,0.0,0.0,1
500bus.pwf,15,377,1.0066881945027712,-0.16030154308611788,0.9039,0.24100000000000002,0.0,0.0,1
500bus.pwf,15,378,1.0201909211036093,-0.03188761652544007,0.0,0.0,0.0,0.0,1
500bus.pwf,15,379,1.0199860736183093,-0.03234551855479355,0.1301,0.0347,0.0,0.0,1
500bus.pwf,15,380,1.0102402659208407,-0.1395254386854275,0.0,0.0,0.0,0.0,1
500bus.pwf,15,381,1.0100911336679024,-0.13986785082230246,0.1013,0.02702,0.0,0.0,1
500bus.pwf,15,382,1.0262760368147126,-0.25775488344912784,0.0,0.0,0.0,0.0,1
500bus.pwf,15,383,1.0258394614722939,-0.25873036175771413,0.2995,0.07986,0.0,0.0,1
500bus.pwf,15,384,1.0005227868349682,-0.22968771935525412,0.0,0.0,0.0,0.0,1
500bus.pwf,15,385,1.0000066702458856,-0.23078448266097362,0.36619999999999997,0.09766,0.0,0.0,1
500bus.pwf,15,386,1.0276458663395782,-0.06141877906524885,0.0,0.0,0.0,0.0,1
500bus.pwf,15,387,1.0223108671559697,-0.09184629886679627,0.0,0.0,0.0,0.0,1
500bus.pwf,15,388,1.027,-0.06141344657873101,0.0,0.0,0.0,-0.015632918119902393,2
500bus.pwf,15,389,1.027,-0.06141122168572289,0.0,0.0,0.0,-0.018548789171707877,2
500bus.pwf,15,390,1.027,-0.06141394096093875,0.0,0.0,0.0,-0.024314689093305614,2
500bus.pwf,15,391,1.027,-0.06141288133615664,0.0,0.0,0.0,-0.02706261576894154,2
500bus.pwf,15,392,1.027,-0.061413254272656155,0.0,0.0,0.0,-0.02010623566935147,2
500bus.pwf,15,393,1.027,-0.06141427508586379,0.0,0.0,0.0,-0.019806053153271518,2
500bus.pwf,15,394,1.027,-0.06140763760306691,0.0,0.0,0.0,-0.03015021207351366,2
500bus.pwf,15,395,1.027,-0.061407156866771666,0.0,0.0,0.0,-0.011794179585272471,2
500bus.pwf,15,396,1.027,-0.06141443063726886,0.0,0.0,0.0,-0.030595236200451795,2
500bus.pwf,15,397,1.021765186695124,-0.0930560018953052,0.3995,0.1065,0.0,0.0,1
500bus.pwf,15,398,1.0220613450488043,-0.09231511434375562,0.1677,0.04471,0.0,0.0,1
500bus.pwf,15,399,1.0233318951070016,-0.2210794888818321,0.0,0.0,0.0,0.0,1
500bus.pwf,15,400,1.0229372106562244,-0.2219109559991934,0.2302,0.061399999999999996,0.0,0.0,1
500bus.pwf,15,401,1.0078377410083206,0.07249653331349143,0.0,0.0,0.0,0.0,1
500bus.pwf,15,402,1.0065153100419455,0.06938216216595766,0.8835,0.23559999999999998,0.0,0.0,1
500bus.pwf,15,403,1.0131032195945553,-0.21290192500938446,0.0,0.0,0.0,0.0,1
500bus.pwf,15,404,1.0128023569094367,-0.21353815372411414,0.1977,0.05272,0.0,0.0,1
500bus.pwf,15,405,1.0053959270552562,-0.05350915944938801,0.0,0.0,0.0,0.0,1
500bus.pwf,15,406,1.0053159871461352,-0.05368552889060063,0.0525,0.013999999999999999,0.0,0.0,1
500bus.pwf,15,407,1.0346170272760231,-0.15781161669799884,0.0,0.0,0.0,0.0,1
500bus.pwf,15,408,1.0282999322867077,-0.1946172401299637,0.0,0.0,0.0,0.0,1
500bus.pwf,15,409,1.034,-0.15780634585686637,0.0,0.0,0.0,-0.010441999816006329,2
500bus.pwf,15,410,1.04,-0.12685986442132985,0.0,0.0,0.7943000000000001,0.14055754460364514,2
500bus.pwf,15,411,1.04,-0.14050618630786518,0.0,0.0,0.7943000000000001,0.23977517960680708,2
500bus.pwf,15,412,1.04,-0.13796970544805587,0.0,0.0,0.7943000000000001,0.20984910395232803,2
500bus.pwf,15,413,1.04,-0.1347753142116424,0.0,0.0,0.616,0.1372353950587257,2
500bus.pwf,15,414,1.034,-0.1577981396994727,0.0,0.0,0.0,-0.014424736776667503,2
500bus.pwf,15,415,1.0036228883753544,-0.19855752835369406,0.0,0.0,0.0,0.0,1
500bus.pwf,15,416,1.0035290516344533,-0.1987797981391985,0.060629999999999996,0.01617,0.0,0.0,1
500bus.pwf,15,417,0.9989255146381013,-0.19056820166427776,0.0,0.0,0.0,0.0,1
500bus.pwf,15,418,0.997912567297663,-0.19270240427978189,0.6362,0.1696,0.0,0.0,1
500bus.pwf,15,419,1.0109957177075812,-0.2644466729287557,0.0,0.0,0.0,0.0,1
500bus.pwf,15,420,1.0109147349752396,-0.2646308911245601,0.05226,0.01394,0.0,0.0,1
500bus.pwf,15,421,1.012677260291886,-0.14668092187393625,0.0,0.0,0.0,0.0,1
500bus.pwf,15,422,1.011968616955067,-0.14809098248858502,0.4918,0.1311,0.0,0.0,1
500bus.pwf,15,423,0.9975518099678261,0.05859294552388152,0.0,0.0,0.0,0.0,1
500bus.pwf,15,424,0.9948291812288719,0.05276470325331323,1.571,0.4189,0.0,0.0,1
500bus.pwf,15,425,1.01958850563586,-0.1546466901088097,0.0,0.0,0.0,0.0,1
500bus.pwf,15,426,1.0140809807505737,-0.1947381469837057,0.0,0.0,0.0,0.0,1
500bus.pwf,15,427,1.0138697588204577,-0.19513761502141172,0.14429999999999998,0.03849,0.0,0.0,1
500bus.pwf,15,428,1.030713525381868,-0.09467447983710872,0.0,0.0,0.0,0.0,1
500bus.pwf,15,429,1.020443428900215,-0.12608790172133633,0.0,0.0,0.0,0.0,1
500bus.pwf,15,430,1.031,-0.09408141323049339,0.0,0.0,0.01,0.004464865708101736,2
500bus.pwf,15,431,1.031,-0.09354496181639475,0.0,0.0,0.033,0.007784509362774173,2
500bus.pwf,15,432,1.031,-0.09431794254092792,0.0,0.0,0.012,0.009217728304794262,2
500bus.pwf,15,433,1.033,-0.08896856394103203,0.0,0.0,0.067,0.025562328490872487,2
500bus.pwf,15,434,1.031,-0.09376189599339567,0.0,0.0,0.043,0.012495487192893352,2
500bus.pwf,15,435,1.031,-0.0946773319923378,0.0,0.0,0.0,0.010451356531433292,2
500bus.pwf,15,436,1.031,-0.09467875281231533,0.0,0.0,0.0,0.020639786227129888,2
500bus.pwf,15,437,1.04,-0.06085005170431223,0.0,0.0,1.97,0.5420431271673046,2
500bus.pwf,15,438,1.04,-0.05219040161882872,0.0,0.0,1.97,0.41309614734602795,2
500bus.pwf,15,439,1.04,-0.06806225212095887,0.0,0.0,1.97,0.6750063080472241,2
500bus.pwf,15,440,1.0169526658381696,-0.12921924949637814,0.0,0.0,0.0,0.0,1
500bus.pwf,15,441,1.0027310730413341,-0.2000025081258374,0.0,0.0,0.0,0.0,1
500bus.pwf,15,442,1.015,-0.1291977667837227,0.0,0.0,0.0,-0.0443489726709112,2
500bus.pwf,15,443,1.015,-0.12920629998343097,0.0,0.0,0.0,-0.07425836416630723,2
500bus.pwf,15,444,1.015,-0.12919608703904006,0.0,0.0,0.0,-0.022137334414595713,2
500bus.pwf,15,445,1.0094596776652631,-0.16364173417773725,0.0,0.0,0.0,0.0,1
500bus.pwf,15,446,1.0080168996952457,-0.166602970537219,0.8868,0.2365,0.0,0.0,1
500bus.pwf,15,447,1.0185348754270802,-0.137549417580156,0.0,0.0,0.0,0.0,1
500bus.pwf,15,448,1.017626427749968,-0.13959752410915297,0.5756,0.1535,0.0,0.0,1
500bus.pwf,15,449,1.0120612408175913,-0.14719021513626293,0.0,0.0,0.0,0.0,1
500bus.pwf,15,450,1.0120456280285217,-0.14722514689662541,0.01122,0.00299,0.0,0.0,1
500bus.pwf,15,451,1.0120311579073968,-0.1472561208680061,0.022109999999999998,0.0059,0.0,0.0,1
500bus.pwf,15,452,1.0167087224232105,0.06042301699046519,0.1116,0.029769999999999998,0.0,0.0,1
500bus.pwf,15,453,1.0299405417405019,-0.11687333783416955,0.0,0.0,0.0,0.0,1
500bus.pwf,15,454,1.011346276424783,-0.19182479080660392,0.0,0.0,0.0,0.0,1
500bus.pwf,15,455,1.04,-0.1069430034031926,0.0,0.0,0.6685,0.639903430457597,2
500bus.pwf,15,456,1.04,-0.09613987486694857,0.0,0.0,1.337,0.6289872220078684,2
500bus.pwf,15,457,1.0191023542253692,-0.12400239024745127,0.0,0.0,0.0,0.0,1
500bus.pwf,15,458,1.021,-0.04797269632464431,0.0,0.0,1.0959999999999999,0.0379663380712141,2
500bus.pwf,15,459,1.0094624171216025,0.1209379294940101,0.7447,0.1986,0.0,0.0,1
500bus.pwf,15,460,1.00503001416014,-0.16349741184634045,0.2634,0.07025,0.0,0.0,1
500bus.pwf,15,461,1.0048126421581212,-0.1628245040974045,0.9172,0.2446,0.0,0.0,1
500bus.pwf,15,462,1.023660678774528,-0.13040681137216661,0.0,0.0,0.0,0.0,1
500bus.pwf,15,463,1.019,-0.13032074497569923,0.0,0.0,0.0,-0.04960029045234129,2
500bus.pwf,15,464,1.028595820968671,-0.09937612971385461,0.0,0.0,0.0,0.0,1
500bus.pwf,15,465,1.0254172934197525,-0.11732547384451225,0.1252,0.03339,0.0,0.0,1
500bus.pwf,15,466,1.01860067984719,-0.13107724120421863,0.4334,0.11560000000000001,0.0,0.0,1
500bus.pwf,15,467,1.0164538886120846,-0.11556658950209912,0.00807,0.00215,0.0,0.0,1
500bus.pwf,15,468,1.007574423093701,-0.14119033192019717,0.03762,0.010029999999999999,0.0,0.0,1
500bus.pwf,15,469,0.9923139780039978,-0.20215947239282778,1.285,0.3427,0.0,0.0,1
500bus.pwf,15,470,1.0176318687386565,-0.10865489927739463,0.42560000000000003,0.11349999999999999,0.0,0.0,1
500bus.pwf,15,471,1.029295050454053,-0.09391846878022203,0.0,0.0,0.0,0.0,1
500bus.pwf,15,472,1.0223036839698703,-0.1199602671540379,0.4971,0.1326,0.0,0.0,1
500bus.pwf,15,473,1.0186532945677582,-0.10152346807070313,0.00999,0.00266,0.0,0.0,1
500bus.pwf,15,474,1.0023603465026865,-0.1668117947130103,0.0,0.0,0.0,0.0,1
500bus.pwf,15,475,1.0161117032410714,-0.10028744875901895,0.0016200000000000001,0.00043,0.0,0.0,1
500bus.pwf,15,476,1.011406563200571,-0.19611669469403722,0.5986,0.15960000000000002,0.0,0.0,1
500bus.pwf,15,477,1.0230237630744787,-0.15067520375108612,0.0,0.0,0.0,0.0,1
500bus.pwf,15,478,1.018943106979209,-0.07311568268481099,0.0,0.0,0.0,0.0,1
500bus.pwf,15,479,1.0329608247430024,-0.09325361733517569,0.0,0.0,0.0,0.0,1
500bus.pwf,15,480,1.04,-0.060619963188083895,0.0,0.0,0.56,0.10370433414771042,2
500bus.pwf,15,481,1.04,-0.07032164973198633,0.0,0.0,0.45,0.12963659624714205,2
500bus.pwf,15,482,1.039,-0.08012086764790648,0.0,0.0,0.45,0.18270750083852472,2
500bus.pwf,15,483,1.04,-0.07097606275961864,0.0,0.0,0.24,0.0671909005441864,2
500bus.pwf,15,484,1.039,-0.07908089929993713,0.0,0.0,0.28,0.10883021670793336,2
500bus.pwf,15,485,1.0075755937254842,-0.20652046073135946,0.2788,0.07434,0.0,0.0,1
500bus.pwf,15,486,1.0104505241230888,-0.19130118804143015,0.6853,0.18280000000000002,0.0,0.0,1
500bus.pwf,15,487,1.0347086303491777,-0.2618712182096434,0.1167,0.031110000000000002,0.0,0.0,1
500bus.pwf,15,488,0.9900856623368905,-0.20558118137811798,0.9790000000000001,0.2611,0.0,0.0,1
500bus.pwf,15,489,1.0248038880197676,-0.1992571225952168,0.0,0.0,0.0,0.0,1
500bus.pwf,15,490,0.9991358606685032,-0.22315938603155122,0.2981,0.0795,0.0,0.0,1
500bus.pwf,15,491,1.0110583017623138,-0.22515549455044176,1.195,0.3187,0.0,0.0,1
500bus.pwf,15,492,1.004596922949983,-0.06564432331400691,0.5954,0.1588,0.0,0.0,1
500bus.pwf,15,493,1.0158056538986904,-0.11221354439840046,0.04047,0.01079,0.0,0.0,1
500bus.pwf,15,494,1.014,-0.1121806468829898,0.0,0.0,0.0,-0.028474844471343342,2
500bus.pwf,15,495,1.0096135349244701,-0.153382364502075,0.7517,0.2005,0.0,0.0,1
500bus.pwf,15,496,1.012693958887292,0.12561160788591477,0.0,0.0,0.0,0.0,1
500bus.pwf,15,497,1.027,0.1626284118311168,0.0,0.0,0.6,0.22446328345654099,2
500bus.pwf,15,498,1.021,0.1458143079934402,0.0,0.0,0.18,0.06780406308714723,2
500bus.pwf,15,499,1.0003574255747092,-0.22932875450676227,1.2229999999999999,0.3262,0.0,0.0,1
500bus.pwf,15,500,1.0235837906266607,-0.19902658853074828,0.0,0.0,0.0,0.0,1
